/*--------------------------------*- C++ -*----------------------------------*\
  =========                 |
  \\      /  F ield         | OpenFOAM: The Open Source CFD Toolbox
   \\    /   O peration     | Website:  https://openfoam.org
    \\  /    A nd           | Version:  6
     \\/     M anipulation  |
\*---------------------------------------------------------------------------*/
FoamFile
{
    version     2.0;
    format      ascii;
    class       dictionary;
    location    "system";
    object      fvSchemes;
}
// * * * * * * * * * * * * * * * * * * * * * * * * * * * * * * * * * * * * * //

ddtSchemes
{
    default         Euler;
}

gradSchemes
{
    default         leastSquares;
}

divSchemes
{
    div(rhoPhi,U)     Gauss linearUpwind grad(U); //Gauss upwind;
    div(phi,alpha)    Gauss CICSAM 0.5;
    div(phi,k)        Gauss upwind;
    div(phi,epsilon)  Gauss upwind;
    div(alphaRhoPhi,k)        Gauss upwind;
    div(alphaRhoPhi,epsilon)  Gauss upwind;
    div(phi,omega)    Gauss upwind;
    div(phirb,alpha)  Gauss linear;
    div(((rho*nuEff)*dev2(T(grad(U))))) Gauss linear;
    div((nuEff*dev2(T(grad(U))))) Gauss linear; 
    div(phi,Y)		Gauss upwind;
//    div(phi,Yi_h)	Gauss vanLeer;
}

laplacianSchemes
{
    default         Gauss linear corrected;
}

interpolationSchemes
{
    default         linear;
    "interpolate(alpha.*)" limitedLinear "grad(alpha.*)";
}

snGradSchemes
{
    default         corrected;
}

fluxRequired
{
    default	no;
    pcorr;
    p_rgh;
    "alpha.*";	
    Y;
    Yexp;
}


wallDist
{
    method meshWave;
}

// ************************************************************************* //
